Circuit: * Z:\home\spock\HiG\EE413A-mätteknik\lab\lab-02\sim\lpf.asc

Direct Newton iteration for .op point succeeded.

Date: Wed Dec 03 22:22:27 2014
Total elapsed time: 0.036 seconds.

tnom = 27
temp = 27
method = trap
totiter = 20
traniter = 0
tranpoints = 0
accept = 0
rejected = 0
matrix size = 29
fillins = 32
solver = Normal
Matrix Compiler1:     153 opcodes
Matrix Compiler2: 2,90 KB object code size

